ipss.test.plugin.core/testData/psse/V32/aeso/2013_FLM.raw
0,   100.00, 33, 0, 1, 60.00     / PSS(R)E-33.4    THU, JUN 27 2013   0:32
TASMO MODEL; OUTPUT GENERATED 2012-09-18 09:43:58
SWINGBUS 1520 FOR 2012LPBL-1:2013-09-01:1:503--1-0-0-0
     1,'JUDY515S    ',  69.0000,1,  26,  99,  17,1.04746, -18.8105,1.10000,0.90000,1.10000,0.90000
     2,'MAYERTH     ', 138.0000,1,  40,  99,  17,1.02545, -15.5628,1.10000,0.90000,1.10000,0.90000
     3,'COLINTO7    ', 138.0000,1,  27,  99,  17,1.01372, -17.1163,1.10000,0.90000,1.10000,0.90000
     4,'WESTLOC7    ', 138.0000,1,  27,  99,  17,1.02075, -15.1985,1.10000,0.90000,1.10000,0.90000
     5,'CLYDE  7    ', 138.0000,1,  27,  99,  17,1.01863, -15.5629,1.10000,0.90000,1.10000,0.90000
     6,'DICKSOA9    ',   4.1600,1,  39,  99,   7,1.03494, -18.8851,1.10000,0.90000,1.10000,0.90000
     7,'BOYLE  7    ', 138.0000,1,  27,  99,  17,1.01706, -17.5532,1.10000,0.90000,1.10000,0.90000
     8,'WHI 3647    ', 138.0000,1,  26,  99,  17,1.03202, -16.6536,1.10000,0.90000,1.10000,0.90000
     9,'WHITECO7    ', 138.0000,1,  26,  99,  17,1.03241, -17.0313,1.10000,0.90000,1.10000,0.90000
    10,'WHITECO8    ',  69.0000,1,  26,  99,  17,1.05258, -16.4793,1.10000,0.90000,1.10000,0.90000
    12,'FOX CREE    ', 138.0000,1,  24,  99,  17,1.03432, -18.6652,1.10000,0.90000,1.10000,0.90000
    13,'KAYBOB 7    ', 138.0000,1,  24,  99,  17,1.02119, -17.9443,1.10000,0.90000,1.10000,0.90000
    14,'WESGEN 9    ',  13.8000,2,  27,  99,   4,1.02500, -11.5652,1.10000,0.90000,1.10000,0.90000
    15,'MTN COA7    ', 138.0000,1,  29,  99,  17,1.04066, -15.5487,1.10000,0.90000,1.10000,0.90000
    16,'FLATBUS7    ', 138.0000,1,  27,  99,  17,1.02566, -14.6298,1.10000,0.90000,1.10000,0.90000
    17,'COLD CR7    ', 138.0000,1,  29,  99,  17,1.04612, -15.9877,1.10000,0.90000,1.10000,0.90000
    18,'GULF RO7    ', 138.0000,1,  29,  99,  17,1.02543, -14.7665,1.10000,0.90000,1.10000,0.90000
    19,'WESGEN T    ', 138.0000,1,  27,  99,  17,1.02716, -14.5244,1.10000,0.90000,1.10000,0.90000
    20,'EDSON  7    ', 138.0000,1,  29,  99,  17,1.02931, -14.3079,1.10000,0.90000,1.10000,0.90000
    21,'WESGEN 7    ', 138.0000,1,  27,  99,   4,1.02917, -14.1775,1.10000,0.90000,1.10000,0.90000
    26,'ENTWIST7    ', 138.0000,1,  40,  99,  17,1.02112, -14.0710,1.10000,0.90000,1.10000,0.90000
    27,'WABAMUN8    ',  69.0000,1,  40,  99,  17,1.03316, -11.8060,1.10000,0.90000,1.10000,0.90000
    31,'FINCAST7    ', 138.0000,1,  52,  99,  17,1.00076, -16.0038,1.10000,0.90000,1.10000,0.90000
    32,'ONOWAY 8    ',  69.0000,1,  40,  99,  17,1.03375, -11.8349,1.10000,0.90000,1.10000,0.90000
    33,'BRAZEAA9    ',  13.2000,2,  30,  99,  17,1.03039, -15.5769,1.10000,0.90000,1.10000,0.90000
    35,'LODGEPO7    ', 138.0000,1,  30,  99,  17,1.01506, -15.1326,1.10000,0.90000,1.10000,0.90000
    36,'BRAZEAU7    ', 138.0000,1,  30,  99,  17,1.03464, -14.8700,1.10000,0.90000,1.10000,0.90000
    37,'HRT EXP7    ', 138.0000,1,  32,  99,  25,1.04018,  -8.8359,1.10000,0.90000,1.10000,0.90000
    38,'BRAZ OUT    ', 138.0000,1,  30,  99,  17,1.03068, -15.5495,1.10000,0.90000,1.10000,0.90000
    39,'CYNTHIA7    ', 138.0000,1,  30,  99,  17,1.01793, -16.2932,1.10000,0.90000,1.10000,0.90000
    40,'N CALDE7    ', 138.0000,1,  60,  99,  17,1.02663, -14.2653,1.10000,0.90000,1.10000,0.90000
    41,'N BARRH7    ', 138.0000,1,  40,  99,  17,1.02875, -14.4485,1.10000,0.90000,1.10000,0.90000
    42,'AMOCO BR    ', 138.0000,1,  30,  99,  17,1.02545, -16.7480,1.10000,0.90000,1.10000,0.90000
    43,'SCOTF_4     ', 138.0000,2,  33,  99,  29,1.03000, -13.5637,1.10000,0.90000,1.10000,0.90000
    44,'FT ASBN7    ', 138.0000,1,  40,  99,  17,1.03328, -16.2256,1.10000,0.90000,1.10000,0.90000
    47,'SHERWOO7    ', 138.0000,1,  60,  99,  17,1.01637, -13.8835,1.10000,0.90000,1.10000,0.90000
    48,'DIAM SH7    ', 138.0000,1,  33,  99,  17,1.03047, -13.5195,1.10000,0.90000,1.10000,0.90000
    49,'KEYSTON7    ', 138.0000,1,  30,  99,  17,1.01978,  -9.7077,1.10000,0.90000,1.10000,0.90000
    50,'RIVERSID    ', 138.0000,2,  33,  99, 211,1.02862, -13.6897,1.10000,0.90000,1.10000,0.90000
    51,'W PEMBI7    ', 138.0000,1,  30,  99,  17,1.02093, -16.8028,1.10000,0.90000,1.10000,0.90000
    52,'BLUERIDG    ', 138.0000,1,  26,  99,  17,1.02646, -16.6682,1.10000,0.90000,1.10000,0.90000
    53,'SANDYPT7    ', 138.0000,1,  48,  99,  17,1.03493, -11.5694,1.10000,0.90000,1.10000,0.90000
    55,'GULF OI7    ', 138.0000,1,  60,  99,  17,1.02012, -13.6193,1.10000,0.90000,1.10000,0.90000
    56,'IPPL ED7    ', 138.0000,1,  60,  99,  17,1.02103, -13.5814,1.10000,0.90000,1.10000,0.90000
    57,'LAMOURE4    ', 240.0000,1,  33,  99,  17,1.03475, -12.3792,1.10000,0.90000,1.10000,0.90000
    58,'FORT SA7    ', 138.0000,1,  60,  99,  17,1.02721, -13.5876,1.10000,0.90000,1.10000,0.90000
    59,'REDWATE7    ', 138.0000,1,  33,  99,  17,1.02010, -14.1124,1.10000,0.90000,1.10000,0.90000
    60,'BEAMER 7    ', 138.0000,1,  33,  99,  17,1.02543, -13.8130,1.10000,0.90000,1.10000,0.90000
    61,'UN CARB9    ', 138.0000,2,  33,  99, 191,1.03000, -13.4367,1.10000,0.90000,1.10000,0.90000
    62,'SHERRIT7    ', 138.0000,1,  33,  99,  17,1.02804, -13.5651,1.10000,0.90000,1.10000,0.90000
    63,'LAMOURE7    ', 138.0000,1,  33,  99,  17,1.03123, -13.4126,1.10000,0.90000,1.10000,0.90000
    64,'BANFF  7    ', 138.0000,1,  44,  99,  17,1.01714, -21.8951,1.10000,0.90000,1.10000,0.90000
    65,'BARDO  7    ', 138.0000,1,  31,  99,  17,1.00362, -14.6155,1.10000,0.90000,1.10000,0.90000
    66,'IOL 737L    ', 138.0000,1,  60,  99,  17,1.01953, -13.6532,1.10000,0.90000,1.10000,0.90000
    67,'BRUDERH7    ', 138.0000,1,  33,  99,  17,1.03663, -13.8124,1.10000,0.90000,1.10000,0.90000
    68,'N HOLDE7    ', 138.0000,1,  56,  99,  17,1.01291, -13.3468,1.10000,0.90000,1.10000,0.90000
    69,'IOL 738L    ', 138.0000,1,  60,  99,  17,1.01462, -13.9596,1.10000,0.90000,1.10000,0.90000
    70,'CAMROSE7    ', 138.0000,1,  31,  99,  17,0.99316, -15.7085,1.10000,0.90000,1.10000,0.90000
    71,'JARROW 8    ',  69.0000,1,  32,  99,  17,1.04713, -10.0942,1.10000,0.90000,1.10000,0.90000
    72,'JARROW 7    ', 138.0000,1,  32,  99,  17,1.02907, -10.0734,1.10000,0.90000,1.10000,0.90000
    73,'HARDIST7    ', 138.0000,1,  32,  99,  17,1.04074,  -8.7950,1.10000,0.90000,1.10000,0.90000
    74,'METIS647    ', 138.0000,1,  37,  99,  17,1.02599, -10.2356,1.10000,0.90000,1.10000,0.90000
    75,'HUGHEND7    ', 138.0000,1,  37,  99,  17,1.02814,  -9.7676,1.10000,0.90000,1.10000,0.90000
    76,'IPPL ST7    ', 138.0000,1,  56,  99,  17,1.03745,  -8.7892,1.10000,0.90000,1.10000,0.90000
    77,'WAINWRI8    ',  69.0000,1,  32,  99,  17,1.04845, -10.2046,1.10000,0.90000,1.10000,0.90000
    78,'SEDGEWI7    ', 138.0000,1,  32,  99,  17,1.04242,  -6.9233,1.10000,0.90000,1.10000,0.90000
    79,'BUFFALO7    ', 138.0000,1,  32,  99,  17,1.02031, -13.4715,1.10000,0.90000,1.10000,0.90000
    80,'BUCKLAK7    ', 138.0000,1,  30,  99,  17,1.00761, -13.4306,1.10000,0.90000,1.10000,0.90000
    81,'BIGSTON4    ', 240.0000,1,  31,  99,  17,1.01133, -11.2546,1.10000,0.90000,1.10000,0.90000
    82,'CHEVRON7    ', 138.0000,1,  24,  99,  17,1.02092, -17.9540,1.10000,0.90000,1.10000,0.90000
    83,'RBCUPIL7    ', 138.0000,1,  17,  99,  21,1.08535, -18.4624,1.10000,0.90000,1.10000,0.90000
    85,'MILLAR 7    ', 138.0000,1,  26,  99,  17,1.01206, -17.2624,1.10000,0.90000,1.10000,0.90000
    86,'PROVOST7    ', 138.0000,1,  37,  99,  17,1.01606, -10.6429,1.10000,0.90000,1.10000,0.90000
    87,'METIS644    ', 240.0000,1,  37,  99,  17,1.06623,  -8.5729,1.10000,0.90000,1.10000,0.90000
    88,'BICKERD7    ', 138.0000,1,  29,  99,  17,1.03570, -13.8113,1.10000,0.90000,1.10000,0.90000
    89,'E EDMON7    ', 138.0000,1,  60,  99,  17,1.02179, -13.5420,1.10000,0.90000,1.10000,0.90000
    90,'BICKERD4    ', 240.0000,1,  29,  99,  17,1.08741, -11.9190,1.10000,0.90000,1.10000,0.90000
    91,'NISKU  7    ', 138.0000,1,  60,  99,  17,0.99989, -16.3020,1.10000,0.90000,1.10000,0.90000
    93,'WETASKI7    ', 138.0000,1,  31,  99,  17,1.01698, -15.5886,1.10000,0.90000,1.10000,0.90000
    94,'ERVICK 7    ', 138.0000,1,  31,  99,  17,0.99651, -15.8085,1.10000,0.90000,1.10000,0.90000
    95,'PONOKA 7    ', 138.0000,1,  31,  99,  17,1.00174, -16.6351,1.10000,0.90000,1.10000,0.90000
    96,'DEVON  7    ', 138.0000,1,  60,  99,  17,0.99262, -16.5854,1.10000,0.90000,1.10000,0.90000
    97,'ECKVILL7    ', 138.0000,1,  35,  99,  17,1.02580, -15.0691,1.10000,0.90000,1.10000,0.90000
    98,'RIMBEY 7    ', 138.0000,1,  35,  99,  17,1.01566, -15.5542,1.10000,0.90000,1.10000,0.90000
    99,'BENALTO7    ', 138.0000,1,  35,  99,  17,1.03348, -14.7107,1.10000,0.90000,1.10000,0.90000
   100,'ROCKY M7    ', 138.0000,1,  38,  99,  17,1.00424, -16.5850,1.10000,0.90000,1.10000,0.90000
   101,'COOKING7    ', 138.0000,1,  60,  99,  17,1.00576, -14.4331,1.10000,0.90000,1.10000,0.90000
   102,'BIGHORN1    ',  13.8000,2,  34,  99,  17,0.98491, -12.6647,1.10000,0.90000,1.10000,0.90000
   103,'BIG HOR7    ', 138.0000,1,  34,  99,  17,1.00461, -12.6647,1.10000,0.90000,1.10000,0.90000
   104,'STRACHA7    ', 138.0000,1,  38,  99,  17,1.00483, -16.9111,1.10000,0.90000,1.10000,0.90000
   105,'PIGEON 7    ', 138.0000,1,  31,  99,  17,1.00923, -15.9112,1.10000,0.90000,1.10000,0.90000
   106,'DEERLAN7    ', 138.0000,1,  33,  99,  17,1.03233, -13.6378,1.10000,0.90000,1.10000,0.90000
   107,'SUNDRE 7    ', 138.0000,1,  38,  99,  17,0.97689, -19.2585,1.10000,0.90000,1.10000,0.90000
   108,'BIGHORN2    ',  13.8000,2,  34,  99,  17,0.97200,  -6.7310,1.10000,0.90000,1.10000,0.90000
   109,'DEERLAN4    ', 240.0000,1,  33,  99,  17,1.05358, -12.8554,1.10000,0.90000,1.10000,0.90000
   110,'IPL EDM7    ', 138.0000,1,  60,  99,  17,1.02103, -13.5818,1.10000,0.90000,1.10000,0.90000
   111,'SANDHIL7    ', 138.0000,1,  48,  99,  17,1.03494, -11.5826,1.10000,0.90000,1.10000,0.90000
   112,'SUNKEN7     ', 138.0000,1,  37,  99,  17,1.02596, -10.2336,1.10000,0.90000,1.10000,0.90000
   113,'BLACKFA7    ', 138.0000,1,  35,  99,  17,1.00909, -16.4435,1.10000,0.90000,1.10000,0.90000
   114,'LACOMBE7    ', 138.0000,1,  35,  99,  17,1.00299, -16.6841,1.10000,0.90000,1.10000,0.90000
   115,'S RED DE    ', 138.0000,1,  35,  99,  17,1.01901, -15.9027,1.10000,0.90000,1.10000,0.90000
   116,'W LACOMB    ', 138.0000,1,  35,  99,  17,1.00536, -16.5935,1.10000,0.90000,1.10000,0.90000
   117,'RED DE A    ', 138.0000,1,  35,  99,  17,1.02114, -15.6961,1.10000,0.90000,1.10000,0.90000
   118,'RED DE B    ', 138.0000,1,  35,  99,  17,1.02114, -15.6961,1.10000,0.90000,1.10000,0.90000
   119,'N RED D7    ', 138.0000,1,  35,  99,  17,1.01957, -15.9889,1.10000,0.90000,1.10000,0.90000
   120,'INNISFA7    ', 138.0000,1,  39,  99,  17,1.00281, -17.5657,1.10000,0.90000,1.10000,0.90000
   121,'OLDS   7    ', 138.0000,1,  39,  99,  17,0.98610, -19.5024,1.10000,0.90000,1.10000,0.90000
   122,'MADDEN 7    ', 138.0000,1,  39,  99,  17,0.98654, -20.9186,1.10000,0.90000,1.10000,0.90000
   123,'DIDSBURY    ', 138.0000,1,  39,  99,  17,0.98730, -20.0734,1.10000,0.90000,1.10000,0.90000
   124,'HARMATT7    ', 138.0000,1,  39,  99,  17,0.98611, -20.0261,1.10000,0.90000,1.10000,0.90000
   125,'YASAA7      ', 138.0000,1,  60,  99,  17,1.02056, -13.5974,1.10000,0.90000,1.10000,0.90000
   126,'SHELL H7    ', 138.0000,1,  39,  99,  17,0.98601, -20.0923,1.10000,0.90000,1.10000,0.90000
   127,'BEDDING2    ', 138.0000,1,   6,  99,   3,1.03399, -20.0276,1.10000,0.90000,1.10000,0.90000
   128,'ELLERSLI    ', 240.0000,1,  60,  99,  17,1.02773,  -8.2702,1.10000,0.90000,1.10000,0.90000
   129,'SUND#1GN    ',  18.0000,2,  40,  99,  17,1.04519,  -2.6960,1.10000,0.90000,1.10000,0.90000
   130,'SUND#3GN    ',  20.0000,2,  40,  99,  17,1.03000,  -1.0400,1.10000,0.90000,1.10000,0.90000
   131,'SUNDANA8    ',  69.0000,1,  40,  99,  17,1.02612, -10.0898,1.10000,0.90000,1.10000,0.90000
   132,'SUNDANC7    ', 138.0000,1,  40,  99,  17,1.03563,  -7.5612,1.10000,0.90000,1.10000,0.90000
   133,'WABAMUN4    ', 240.0000,1,  40,  99,  17,1.06920,  -9.4521,1.10000,0.90000,1.10000,0.90000
   134,'WABAMUN7    ', 138.0000,1,  40,  99,  17,1.03590, -12.1614,1.10000,0.90000,1.10000,0.90000
   135,'SUNDANC4    ', 240.0000,1,  40,  99,  17,1.08601,  -8.0331,1.10000,0.90000,1.10000,0.90000
   136,'E EDMON4    ', 240.0000,1,  60,  99,  17,1.01989,  -9.5295,1.10000,0.90000,1.10000,0.90000
   137,'N CALDE4    ', 240.0000,1,  60,  99,  17,1.03158, -11.6384,1.10000,0.90000,1.10000,0.90000
   138,'N BARRH4    ', 240.0000,1,  40,  99,  17,1.09984, -12.6024,1.10000,0.90000,1.10000,0.90000
   141,'DALEHUR7    ', 138.0000,1,  29,  99,  17,1.04136, -15.5042,1.10000,0.90000,1.10000,0.90000
   142,'KINGMAN7    ', 138.0000,1,  31,  99,  17,0.99910, -15.0443,1.10000,0.90000,1.10000,0.90000
   144,'ALGAR  7    ', 138.0000,1,  61,  99,   1,1.06242, -12.7568,1.10000,0.90000,1.10000,0.90000
   147,'GAETZ  4    ', 240.0000,1,  35,  99,  17,1.02231, -13.6753,1.10000,0.90000,1.10000,0.90000
   148,'GAETZ  7    ', 138.0000,1,  35,  99,  17,1.02539, -15.7667,1.10000,0.90000,1.10000,0.90000
   150,'WILLESD4    ', 240.0000,1,  30,  99,  17,1.05818, -13.1533,1.10000,0.90000,1.10000,0.90000
   151,'BRAZ#1 9    ',  13.8000,2,  30,  99,  17,0.98000, -11.6732,1.10000,0.90000,1.10000,0.90000
   152,'RED DEE4    ', 240.0000,1,  35,  99,  17,1.03685, -13.5035,1.10000,0.90000,1.10000,0.90000
   153,'BRAZEAU4    ', 240.0000,1,  30,  99,  17,1.05685, -13.3477,1.10000,0.90000,1.10000,0.90000
   154,'BRAZ#2 9    ',  13.8000,2,  30,  99,  17,0.98624, -13.3477,1.10000,0.90000,1.10000,0.90000
   155,'BENALTO4    ', 240.0000,1,  35,  99,  17,1.05782, -12.4934,1.10000,0.90000,1.10000,0.90000
   156,'E CROSS4    ', 240.0000,1,  57,  99,  17,1.04043, -16.3616,1.10000,0.90000,1.10000,0.90000
   157,'COCHIN 8    ',  69.0000,1,  32,  99, 241,1.04839, -10.2071,1.10000,0.90000,1.10000,0.90000
   158,'LANGDON2    ', 500.0000,1,   6,  99,  17,1.05675, -13.6971,1.10000,0.90000,1.10000,0.90000
   159,'LANGDON4    ', 240.0000,1,   6,  99,  17,1.05400, -15.4573,1.10000,0.90000,1.10000,0.90000
   160,'JANET  4    ', 240.0000,1,   6,  99,  17,1.04476, -17.2953,1.10000,0.90000,1.10000,0.90000
   161,'SARCEE 4    ', 240.0000,1,   6,  99,  17,1.03714, -18.8590,1.10000,0.90000,1.10000,0.90000
   162,'E CALGAR    ', 240.0000,1,   6,  99,  17,1.03694, -18.4591,1.10000,0.90000,1.10000,0.90000
   163,'SAGITAW4    ', 240.0000,1,  26,  99,  17,1.07260, -14.8146,1.10000,0.90000,1.10000,0.90000
   164,'SAGITAW7    ', 138.0000,1,  26,  99,  17,1.03348, -16.2872,1.10000,0.90000,1.10000,0.90000
   165,'PEIGAN 4    ', 240.0000,1,  53,  99, 191,1.04022, -11.9872,1.10000,0.90000,1.10000,0.90000
   166,'PEIGAN 7    ', 138.0000,1,  53,  99, 191,1.02149,  -9.3579,1.10000,0.90000,1.10000,0.90000
   167,'N LETHB4    ', 240.0000,1,  54,  99,  17,1.04466, -12.9205,1.10000,0.90000,1.10000,0.90000
   168,'SUNSHIN8    ',  69.0000,1,  44,  99,  17,1.00800, -28.3406,1.10000,0.90000,1.10000,0.90000
   169,'CAN CEM7    ', 138.0000,1,  44,  99,  17,1.01951, -21.5436,1.10000,0.90000,1.10000,0.90000
   170,'COCHRAN7    ', 138.0000,1,  44,  99,  17,1.00105, -22.6273,1.10000,0.90000,1.10000,0.90000
   171,'SEEBE  7    ', 138.0000,1,  44,  99, 191,1.02022, -21.2103,1.10000,0.90000,1.10000,0.90000
   172,'HORS GEN    ',  12.0000,2,  44,  99,  17,1.02500, -19.1400,1.10000,0.90000,1.10000,0.90000
   173,'BRETV A7    ', 138.0000,1,  60,  99,  17,1.02011, -13.6184,1.10000,0.90000,1.10000,0.90000
   174,'SPRAY G1    ',  13.2000,2,  44,  99,  17,1.04663, -16.9673,1.10000,0.90000,1.10000,0.90000
   175,'CASCADE7    ', 138.0000,1,  44,  99, 194,1.01997, -21.7543,1.10000,0.90000,1.10000,0.90000
   176,'CASCADE9    ',  13.2000,2,  44,  99, 194,1.03586, -20.6231,1.10000,0.90000,1.10000,0.90000
   177,'AIRDRIE     ', 138.0000,1,  57,  99,  17,1.01138, -19.2263,1.10000,0.90000,1.10000,0.90000
   178,'BANFF  8    ',  69.0000,1,  44,  99,  17,1.01245, -28.1144,1.10000,0.90000,1.10000,0.90000
   179,'MARIANA7    ', 138.0000,1,  61,  99,   1,1.06191, -12.6983,1.10000,0.90000,1.10000,0.90000
   180,'GHOST  7    ', 138.0000,1,  44,  99,  17,1.00834, -21.7053,1.10000,0.90000,1.10000,0.90000
   181,'GHOST A9    ',  13.2000,2,  44,  99,  17,1.00000, -19.5817,1.10000,0.90000,1.10000,0.90000
   183,'BEARSPWB    ',  13.2000,2,  44,  99,  17,1.04255, -22.1056,1.10000,0.90000,1.10000,0.90000
   184,'BEARSPAW    ', 138.0000,1,  44,  99,  17,1.00797, -22.4512,1.10000,0.90000,1.10000,0.90000
   187,'BEDDING1    ', 240.0000,1,   6,  99,   3,1.03778, -17.6214,1.10000,0.90000,1.10000,0.90000
   188,'ANG COCA    ',  25.0000,1,  44,  99,  17,1.04849, -24.3563,1.10000,0.90000,1.10000,0.90000
   189,'ANG COCB    ',  13.8000,2,  44,  99,  17,1.00662, -25.7694,1.10000,0.90000,1.10000,0.90000
   190,'SPRAY G2    ',  13.2000,2,  44,  99,  17,1.02635, -21.2383,1.10000,0.90000,1.10000,0.90000
   191,'ANG COCH    ', 138.0000,1,  44,  99,  17,0.99933, -22.6421,1.10000,0.90000,1.10000,0.90000
   192,'NELSON L    ', 138.0000,1,  31,  99,  17,0.99798, -16.8099,1.10000,0.90000,1.10000,0.90000
   193,'KANANAS7    ', 138.0000,1,  44,  99,  17,1.02098, -21.1806,1.10000,0.90000,1.10000,0.90000
   194,'LAKE LO8    ',  69.0000,1,  44,  99,  17,0.97483, -28.9359,1.10000,0.90000,1.10000,0.90000
   195,'RUNDLE S    ', 138.0000,1,  44,  99,  17,1.02568, -21.3307,1.10000,0.90000,1.10000,0.90000
   196,'KANANAS9    ',  12.0000,2,  44,  99,  17,1.04786, -19.0687,1.10000,0.90000,1.10000,0.90000
   197,'RUNDLE G    ',  13.8000,2,  44,  99,  17,1.04761, -19.1964,1.10000,0.90000,1.10000,0.90000
   198,'BALZAC 7    ', 138.0000,1,   6,  99,  17,1.03399, -19.9670,1.10000,0.90000,1.10000,0.90000
   199,'SHELL J7    ', 138.0000,1,  44,  99,  17,1.00667, -21.9173,1.10000,0.90000,1.10000,0.90000
   201,'JUMPPND7    ', 138.0000,1,  44,  99,  17,1.01471, -21.6066,1.10000,0.90000,1.10000,0.90000
   202,'SARCEE 7    ', 138.0000,1,   6,  99,  17,1.01481, -21.6508,1.10000,0.90000,1.10000,0.90000
   203,'SARCEE C    ',  13.8000,1,   6,  99,  17,1.04030, -21.7387,1.10000,0.90000,1.10000,0.90000
   204,'MCMILLA4    ', 240.0000,1,  61,  99,   1,1.11530, -11.3228,1.10000,0.90000,1.10000,0.90000
   205,'AMOCO R7    ', 138.0000,1,  38,  99,  17,0.97924, -18.6871,1.10000,0.90000,1.10000,0.90000
   207,'JANET  7    ', 138.0000,1,   6,  99,  17,1.02839, -20.3080,1.10000,0.90000,1.10000,0.90000
   208,'ENMX2S 7    ', 138.0000,1,   6,  99,   3,1.01120, -21.9265,1.10000,0.90000,1.10000,0.90000
   209,'BRETONA1    ', 138.0000,1,  60,  99,  17,1.01319, -13.9814,1.10000,0.90000,1.10000,0.90000
   210,'SJPC_TP     ', 138.0000,1,  44,  99,  17,1.00688, -21.9083,1.10000,0.90000,1.10000,0.90000
   211,'MOUNT A7    ', 138.0000,1,  44,  99,  17,1.02444, -21.2584,1.10000,0.90000,1.10000,0.90000
   213,'HAIGRIVE    ', 138.0000,1,  17,  99,   1,1.10125, -20.5822,1.10000,0.90000,1.10000,0.90000
   214,'POCATEA9    ',  13.8000,2,  44,  99,  17,0.99953, -18.2378,1.10000,0.90000,1.10000,0.90000
   215,'TEX.W.P7    ', 138.0000,1,  30,  99,  17,1.01586, -16.1125,1.10000,0.90000,1.10000,0.90000
   216,'BARRIER7    ', 138.0000,1,  44,  99,  17,1.02257, -21.1971,1.10000,0.90000,1.10000,0.90000
   217,'SJP_CRK     ', 138.0000,1,  44,  99,  17,1.00683, -21.9104,1.10000,0.90000,1.10000,0.90000
   218,'BLACKMUD    ', 138.0000,1,  60,  99,  17,0.99549, -16.4846,1.10000,0.90000,1.10000,0.90000
   219,'KILLARN7    ', 138.0000,1,  37,  99,  17,1.00820, -14.0910,1.10000,0.90000,1.10000,0.90000
   220,'HAYTER 7    ', 138.0000,1,  37,  99,  17,0.99299, -14.7145,1.10000,0.90000,1.10000,0.90000
   221,'CRR-W1      ', 240.0000,1,  53,  99,  58,1.03459, -11.3258,1.10000,0.90000,1.10000,0.90000
   222,'BARRIER9    ',  13.2000,2,  44,  99,  17,1.03000, -18.8111,1.10000,0.90000,1.10000,0.90000
   223,'PINCHER8    ',  69.0000,1,  53,  99,  17,1.01960, -10.2501,1.10000,0.90000,1.10000,0.90000
   224,'PINCHER7    ', 138.0000,1,  53,  99,  17,1.03981, -10.0907,1.10000,0.90000,1.10000,0.90000
   225,'WARE JCT    ', 240.0000,1,  47,  99,  17,1.07611,  -8.5870,1.10000,0.90000,1.10000,0.90000
   226,'DRYWOOD8    ',  69.0000,1,  55,  99,  17,1.01834, -11.6363,1.10000,0.90000,1.10000,0.90000
...
0 / END OF BUS DATA, BEGIN LOAD DATA
    14,'99',1,  27,  99,     0.062,     0.031,     0.000,     0.000,     0.000,     0.000,   4,1,0
    33,'99',1,  30,  99,     0.117,     0.058,     0.000,     0.000,     0.000,     0.000,  17,1,0
    43,'37',1,  33,  37,   233.741,   116.871,     0.000,     0.000,     0.000,     0.000,  29,1,0
    43,'99',1,  33,  99,     1.957,     0.979,     0.000,     0.000,     0.000,     0.000,  29,1,0
    50,'37',1,  33,  37,    11.148,     5.574,     0.000,     0.000,     0.000,     0.000, 211,1,0
    50,'99',1,  33,  99,     9.189,     4.595,     0.000,     0.000,     0.000,     0.000, 211,1,0
    57,'99',1,  33,  99,     1.031,     0.516,     0.000,     0.000,     0.000,     0.000,  17,1,0
    61,'37',1,  33,  37,    34.128,    17.064,     0.000,     0.000,     0.000,     0.000, 191,1,0
    61,'99',1,  33,  99,    33.012,    16.506,     0.000,     0.000,     0.000,     0.000, 191,1,0
    79,'99',1,  32,  99,     0.001,     0.000,     0.000,     0.000,     0.000,     0.000,  17,1,0
    80,'99',1,  30,  99,     1.004,     0.502,     0.000,     0.000,     0.000,     0.000,  17,1,0
   127,'99',1,   6,  99,    11.256,     5.628,     0.000,     0.000,     0.000,     0.000,   3,1,0
   130,'36',1,  40,  36,    22.100,    11.100,     0.000,     0.000,     0.000,     0.000,  17,1,0
   165,'99',1,  53,  99,     0.001,     0.001,     0.000,     0.000,     0.000,     0.000, 191,1,0
   167,'99',1,  54,  99,     0.001,     0.001,     0.000,     0.000,     0.000,     0.000,  17,1,0
   172,'99',1,  44,  99,     0.000,     0.000,     0.000,     0.000,     0.000,     0.000,  17,1,0
   176,'99',1,  44,  99,     0.078,     0.039,     0.000,     0.000,     0.000,     0.000, 194,1,0
   180,'99',1,  44,  99,     5.275,     2.637,     0.000,     0.000,     0.000,     0.000,  17,1,0
   183,'99',1,  44,  99,     0.005,     0.003,     0.000,     0.000,     0.000,     0.000,  17,1,0
   188,'99',1,  44,  99,     8.599,     4.300,     0.000,     0.000,     0.000,     0.000,  17,1,0
   189,'99',1,  44,  99,     9.349,     4.675,     0.000,     0.000,     0.000,     0.000,  17,1,0
   196,'99',1,  44,  99,     0.000,     0.000,     0.000,     0.000,     0.000,     0.000,  17,1,0
   197,'99',1,  44,  99,     0.024,     0.012,     0.000,     0.000,     0.000,     0.000,  17,1,0
   208,'99',1,   6,  99,     0.014,     0.007,     0.000,     0.000,     0.000,     0.000,   3,1,0
   214,'99',1,  44,  99,     0.074,     0.037,     0.000,     0.000,     0.000,     0.000,  17,1,0
   222,'99',1,  44,  99,     0.035,     0.018,     0.000,     0.000,     0.000,     0.000,  17,1,0
   234,'99',1,  53,  99,     0.097,     0.049,     0.000,     0.000,     0.000,     0.000,  44,1,0
   239,'99',1,  46,  99,     8.208,     4.104,     0.000,     0.000,     0.000,     0.000,  17,1,0
   248,'37',1,  28,  37,    24.730,    12.365,     0.000,     0.000,     0.000,     0.000,  36,1,0
   255,'99',1,  53,  99,     0.055,     0.028,     0.000,     0.000,     0.000,     0.000,  17,1,0
   265,'99',1,  53,  99,     0.055,     0.028,     0.000,     0.000,     0.000,     0.000,  17,1,0
   268,'99',1,  48,  99,     3.511,     1.756,     0.000,     0.000,     0.000,     0.000,  17,1,0
   274,'99',1,  52,  99,    12.058,     6.029,     0.000,     0.000,     0.000,     0.000,  17,1,0
   287,'99',1,  48,  99,     5.016,     2.508,     0.000,     0.000,     0.000,     0.000,  17,1,0
   288,'99',1,  48,  99,     2.508,     1.254,     0.000,     0.000,     0.000,     0.000,  17,1,0
   289,'99',1,  48,  99,     3.260,     1.630,     0.000,     0.000,     0.000,     0.000,  17,1,0
   296,'99',1,  53,  99,     0.003,     0.002,     0.000,     0.000,     0.000,     0.000,  17,1,0
   305,'99',1,  27,  99,     9.418,     4.709,     0.000,     0.000,     0.000,     0.000,  17,1,0
   330,'99',1,  30,  99,    19.479,     9.740,     0.000,     0.000,     0.000,     0.000,  17,1,0
   342,'36',1,  40,  36,    24.000,    12.000,     0.000,     0.000,     0.000,     0.000,  17,1,0
   345,'36',1,  40,  36,    21.800,    10.900,     0.000,     0.000,     0.000,     0.000,  17,1,0
   346,'99',1,  53,  99,     0.004,     0.002,     0.000,     0.000,     0.000,     0.000,  17,1,0
   348,'99',1,  61,  99,     4.253,     2.127,     0.000,     0.000,     0.000,     0.000,  17,1,0
   350,'36',1,  40,  36,    19.100,     9.600,     0.000,     0.000,     0.000,     0.000,  17,1,0
   375,'99',1,  44,  99,     0.121,     0.060,     0.000,     0.000,     0.000,     0.000,  17,1,0
   380,'99',1,  44,  99,     1.051,     0.525,     0.000,     0.000,     0.000,     0.000,  17,1,0
   383,'35',1,  35,  35,    35.960,     0.000,     0.000,     0.000,     0.000,     0.000,  17,1,0
   383,'37',1,  35,  37,    56.686,    28.343,     0.000,     0.000,     0.000,     0.000,  17,1,0
   383,'99',1,  35,  99,    76.706,    38.353,     0.000,     0.000,     0.000,     0.000,  17,1,0
   403,'36',1,  40,  36,    40.800,    20.400,     0.000,     0.000,     0.000,     0.000,  17,1,0
   405,'36',1,  61,  36,     3.000,     1.500,     0.000,     0.000,     0.000,     0.000, 251,1,0
   405,'37',1,  61,  37,     7.797,     3.899,     0.000,     0.000,     0.000,     0.000, 251,1,0
   407,'99',1,  54,  99,     0.014,     0.007,     0.000,     0.000,     0.000,     0.000,  17,1,0
   408,'99',1,  26,  99,     0.144,     0.072,     0.000,     0.000,     0.000,     0.000,  17,1,0
   414,'99',1,  55,  99,     0.024,     0.012,     0.000,     0.000,     0.000,     0.000,  17,1,0
   422,'36',1,  40,  36,    24.100,    12.000,     0.000,     0.000,     0.000,     0.000,  17,1,0
   424,'36',1,  40,  36,    23.200,    11.600,     0.000,     0.000,     0.000,     0.000,  17,1,0
   440,'99',1,  31,  99,     0.029,     0.014,     0.000,     0.000,     0.000,     0.000,  17,1,0
   478,'99',1,  44,  99,    20.567,    10.284,     0.000,     0.000,     0.000,     0.000,  17,1,0
   479,'99',1,  44,  99,     0.024,     0.012,     0.000,     0.000,     0.000,     0.000,  17,1,0
   490,'36',1,  40,  36,    35.900,    18.000,     0.000,     0.000,     0.000,     0.000,   5,1,0
   491,'36',1,  40,  36,    17.200,     8.600,     0.000,     0.000,     0.000,     0.000,   5,1,0
   492,'36',1,  40,  36,    16.600,     8.300,     0.000,     0.000,     0.000,     0.000,   5,1,0
   666,'99',1,  58,  99,     0.396,     0.198,     0.000,     0.000,     0.000,     0.000,   1,1,0
   674,'99',1,  48,  99,     0.000,     0.000,     0.000,     0.000,     0.000,     0.000,  17,1,0
   680,'37',1,   4,  37,   108.697,    54.348,     0.000,     0.000,     0.000,     0.000,  17,1,0
   910,'99',1,  29,  99,     1.025,     0.512,     0.000,     0.000,     0.000,     0.000,  17,1,0
  1029,'99',1,  17,  99,    10.400,     5.200,     0.000,     0.000,     0.000,     0.000,   1,1,0
  1031,'99',1,  17,  99,     5.812,     2.906,     0.000,     0.000,     0.000,     0.000,   1,1,0
  1032,'99',1,  17,  99,    14.377,     7.189,     0.000,     0.000,     0.000,     0.000,   1,1,0
  1035,'99',1,  17,  99,     0.044,     0.022,     0.000,     0.000,     0.000,     0.000,  21,1,0
  1037,'99',1,  17,  99,     0.005,     0.003,     0.000,     0.000,     0.000,     0.000,  21,1,0
  1050,'99',1,  19,  99,     3.372,     1.686,     0.000,     0.000,     0.000,     0.000,   1,1,0
  1089,'34',1,  19,  34,    27.000,    12.000,     0.000,     0.000,     0.000,     0.000,  33,1,0
  1101,'37',1,  20,  37,     5.346,     2.673,     0.000,     0.000,     0.000,     0.000,  30,1,0
  1146,'37',1,  20,  37,    14.520,     7.260,     0.000,     0.000,     0.000,     0.000,  39,1,0
  1148,'36',1,  22,  36,    14.100,     7.100,     0.000,     0.000,     0.000,     0.000,   1,1,0
  1167,'99',1,  23,  99,     0.021,     0.011,     0.000,     0.000,     0.000,     0.000,   1,1,0
  1168,'99',1,  23,  99,     0.028,     0.014,     0.000,     0.000,     0.000,     0.000,   1,1,0
  1171,'35',1,  23,  35,     9.000,     0.000,     0.000,     0.000,     0.000,     0.000,   1,1,0
  1171,'99',1,  23,  99,     0.310,     0.155,     0.000,     0.000,     0.000,     0.000,   1,1,0
  1173,'35',1,  23,  35,     0.865,     0.000,     0.000,     0.000,     0.000,     0.000,   1,1,0
  1173,'99',1,  23,  99,     0.310,     0.155,     0.000,     0.000,     0.000,     0.000,   1,1,0
  1200,'99',1,  59,  99,     0.162,     0.081,     0.000,     0.000,     0.000,     0.000,   1,1,0
  1205,'37',1,  59,  37,   331.723,   165.861,     0.000,     0.000,     0.000,     0.000,   9,1,0
  1208,'37',1,  59,  37,   343.620,   171.809,     0.000,     0.000,     0.000,     0.000,  10,1,0
  1208,'99',1,  59,  99,     0.012,     0.006,     0.000,     0.000,     0.000,     0.000,  10,1,0
  1231,'99',1,  21,  99,    21.563,    10.782,     0.000,     0.000,     0.000,     0.000,   1,1,0
  1232,'99',1,  21,  99,    21.563,    10.782,     0.000,     0.000,     0.000,     0.000,   1,1,0
  1236,'37',1,  59,  37,    28.879,    14.439,     0.000,     0.000,     0.000,     0.000,  40,1,0
  1236,'99',1,  59,  99,     0.396,     0.198,     0.000,     0.000,     0.000,     0.000,  40,1,0
  1241,'37',1,  61,  37,   103.927,    51.963,     0.000,     0.000,     0.000,     0.000,  99,1,0
  1251,'37',1,  58,  37,    70.899,    35.449,     0.000,     0.000,     0.000,     0.000, 261,1,0
  1262,'37',1,  58,  37,    22.389,    11.194,     0.000,     0.000,     0.000,     0.000, 261,1,0
  1274,'37',1,  58,  37,     8.271,     4.136,     0.000,     0.000,     0.000,     0.000,   1,1,0
  1289,'37',1,  59,  37,    76.135,    38.068,     0.000,     0.000,     0.000,     0.000, 481,1,0
  1301,'36',1,  28,  36,     2.600,     1.400,     0.000,     0.000,     0.000,     0.000,  63,1,0
  1301,'37',1,  28,  37,    37.743,    18.872,     0.000,     0.000,     0.000,     0.000,  63,1,0
  1301,'99',1,  28,  99,     4.517,     2.259,     0.000,     0.000,     0.000,     0.000,  63,1,0
  1302,'37',1,  28,  37,    75.414,    37.707,     0.000,     0.000,     0.000,     0.000,   1,1,0
  1344,'99',1,  28,  99,     3.879,     1.940,     0.000,     0.000,     0.000,     0.000,   1,1,0
  1350,'99',1,  56,  99,     0.901,     0.451,     0.000,     0.000,     0.000,     0.000,   1,1,0
  1383,'99',1,  13,  99,     0.005,     0.003,     0.000,     0.000,     0.000,     0.000,   1,1,0
  1471,'99',1,  42,  99,     9.995,     4.998,     0.000,     0.000,     0.000,     0.000,   1,1,0
  1473,'34',1,  48,  34,   -86.440,     0.000,     0.000,     0.000,     0.000,     0.000,   1,1,0
  1474,'99',1,  42,  99,    10.993,     5.497,     0.000,     0.000,     0.000,     0.000,   1,1,0
  1482,'36',1,  43,  36,    14.300,     7.100,     0.000,     0.000,     0.000,     0.000,   1,1,0
  1484,'99',1,  43,  99,     0.001,     0.000,     0.000,     0.000,     0.000,     0.000,   1,1,0
  1487,'36',1,  43,  36,    12.000,     6.000,     0.000,     0.000,     0.000,     0.000,   1,1,0
  1495,'36',1,  36,  36,     8.300,     4.200,     0.000,     0.000,     0.000,     0.000,   1,1,0
  1496,'36',1,  36,  36,     8.000,     4.000,     0.000,     0.000,     0.000,     0.000,   1,1,0
  1497,'36',1,  36,  36,    18.900,     9.500,     0.000,     0.000,     0.000,     0.000,   1,1,0
  1503,'34',1,  15,  34,    10.000,     3.300,     0.000,     0.000,     0.000,     0.000,   2,1,0
  1504,'34',1,  15,  34,    10.000,     3.300,     0.000,     0.000,     0.000,     0.000,   2,1,0
  1505,'34',1,  15,  34,    10.000,     3.300,     0.000,     0.000,     0.000,     0.000,   2,1,0
  1506,'34',1,  15,  34,    10.000,     3.300,     0.000,     0.000,     0.000,     0.000,   2,1,0
  1681,'99',1,  59,  99,    32.586,    16.293,     0.000,     0.000,     0.000,     0.000,  36,1,0
  1683,'99',1,  59,  99,     8.887,     4.443,     0.000,     0.000,     0.000,     0.000,  36,1,0
  1684,'99',1,  59,  99,    32.586,    16.293,     0.000,     0.000,     0.000,     0.000,  36,1,0
  2017,'99',1,  44,  99,     2.770,     1.385,     0.000,     0.000,     0.000,     0.000,  17,1,0
  2018,'99',1,  44,  99,     2.770,     1.385,     0.000,     0.000,     0.000,     0.000,  17,1,0
  2053,'99',1,  48,  99,     3.373,     1.687,     0.000,     0.000,     0.000,     0.000,  17,1,0
  2060,'99',1,  33,  99,    13.103,     6.551,     0.000,     0.000,     0.000,     0.000,  17,1,0
  2062,'99',1,  33,  99,     8.302,     4.151,     0.000,     0.000,     0.000,     0.000,  17,1,0
  2063,'99',1,  33,  99,     8.517,     4.259,     0.000,     0.000,     0.000,     0.000,  17,1,0
  2085,'99',1,  26,  99,    27.800,    13.900,     0.000,     0.000,     0.000,     0.000,  17,1,0
  2089,'99',1,  60,  99,    15.667,     7.833,     0.000,     0.000,     0.000,     0.000,  17,1,0
  2103,'99',1,  34,  99,     1.901,     0.951,     0.000,     0.000,     0.000,     0.000,  17,1,0
  2125,'99',1,  60,  99,     9.046,     4.523,     0.000,     0.000,     0.000,     0.000,  17,1,0
  2169,'99',1,  44,  99,     6.789,     3.394,     0.000,     0.000,     0.000,     0.000,  17,1,0
  2173,'99',1,  60,  99,     5.884,     2.942,     0.000,     0.000,     0.000,     0.000,  17,1,0
  2198,'99',1,   6,  99,    10.389,     5.195,     0.000,     0.000,     0.000,     0.000,  17,1,0
  2208,'99',1,   6,  99,     9.986,     4.993,     0.000,     0.000,     0.000,     0.000,   3,1,0
  2218,'99',1,  60,  99,    13.288,     6.644,     0.000,     0.000,     0.000,     0.000,  17,1,0
  2230,'99',1,  53,  99,     0.019,     0.010,     0.000,     0.000,     0.000,     0.000,   1,1,0
  2231,'99',1,  55,  99,     2.023,     1.011,     0.000,     0.000,     0.000,     0.000,  17,1,0
  2242,'99',1,  46,  99,    16.510,     8.255,     0.000,     0.000,     0.000,     0.000,  17,1,0
  2260,'99',1,  48,  99,    13.745,     6.873,     0.000,     0.000,     0.000,     0.000,  17,1,0
  2266,'99',1,  48,  99,     3.438,     1.719,     0.000,     0.000,     0.000,     0.000,  17,1,0
  2269,'99',1,  52,  99,     8.897,     4.448,     0.000,     0.000,     0.000,     0.000,  17,1,0
  2284,'99',1,   4,  99,     2.659,     1.330,     0.000,     0.000,     0.000,     0.000,  17,1,0
  2297,'99',1,  32,  99,    10.590,     5.295,     0.000,     0.000,     0.000,     0.000,  17,1,0
  2298,'99',1,  26,  99,    29.376,    14.688,     0.000,     0.000,     0.000,     0.000,  17,1,0
  2311,'99',1,  60,  99,    20.728,    10.364,     0.000,     0.000,     0.000,     0.000,  17,1,0
  2315,'99',1,  45,  99,     5.753,     2.877,     0.000,     0.000,     0.000,     0.000,  17,1,0
  2340,'99',1,  45,  99,     7.637,     3.819,     0.000,     0.000,     0.000,     0.000,  17,1,0
  2344,'99',1,  48,  99,     2.704,     1.352,     0.000,     0.000,     0.000,     0.000,  17,1,0
  2357,'99',1,  60,  99,    12.702,     6.351,     0.000,     0.000,     0.000,     0.000,  17,1,0
  2364,'99',1,  40,  99,    13.007,     6.504,     0.000,     0.000,     0.000,     0.000,  17,1,0
  2366,'99',1,  60,  99,    11.877,     5.939,     0.000,     0.000,     0.000,     0.000,  17,1,0
  2368,'99',1,  29,  99,     5.287,     2.644,     0.000,     0.000,     0.000,     0.000,  17,1,0
  2369,'99',1,  61,  99,    13.214,     6.607,     0.000,     0.000,     0.000,     0.000,  17,1,0
  2370,'99',1,  61,  99,    17.516,     8.758,     0.000,     0.000,     0.000,     0.000,  17,1,0
  2373,'99',1,  32,  99,     2.930,     1.465,     0.000,     0.000,     0.000,     0.000,  17,1,0
  2384,'99',1,  35,  99,    33.809,    16.905,     0.000,     0.000,     0.000,     0.000,  17,1,0
  2389,'99',1,  54,  99,     0.082,     0.041,     0.000,     0.000,     0.000,     0.000,  10,1,0
  2392,'37',1,  27,  37,    56.838,    28.419,     0.000,     0.000,     0.000,     0.000, 301,1,0
  2397,'99',1,  29,  99,    12.176,     6.088,     0.000,     0.000,     0.000,     0.000,  17,1,0
  2399,'99',1,  47,  99,    10.748,     5.374,     0.000,     0.000,     0.000,     0.000,  17,1,0
  2402,'99',1,  53,  99,     0.052,     0.026,     0.000,     0.000,     0.000,     0.000, 192,1,0
  2415,'99',1,  29,  99,     0.933,     0.467,     0.000,     0.000,     0.000,     0.000,  17,1,0
  2417,'99',1,  27,  99,    14.485,     7.243,     0.000,     0.000,     0.000,     0.000,  17,1,0
  2488,'99',1,  40,  99,     3.234,     1.617,     0.000,     0.000,     0.000,     0.000,  17,1,0
  2503,'99',1,  57,  99,     0.080,     0.040,     0.000,     0.000,     0.000,     0.000,   3,1,0
  2514,'99',1,  60,  99,     5.351,     2.676,     0.000,     0.000,     0.000,     0.000,   5,1,0
  2515,'99',1,  60,  99,    13.405,     6.703,     0.000,     0.000,     0.000,     0.000,  17,1,0
  2550,'99',1,   6,  99,    13.457,     6.728,     0.000,     0.000,     0.000,     0.000,   3,1,0
  2551,'99',1,   6,  99,    13.999,     6.999,     0.000,     0.000,     0.000,     0.000,   3,1,0
  2555,'99',1,   6,  99,    16.110,     8.055,     0.000,     0.000,     0.000,     0.000,   3,1,0
  2556,'99',1,   6,  99,     3.937,     1.969,     0.000,     0.000,     0.000,     0.000,   3,1,0
  2559,'99',1,   6,  99,     8.476,     4.238,     0.000,     0.000,     0.000,     0.000,   3,1,0
  2561,'99',1,   6,  99,    15.744,     7.872,     0.000,     0.000,     0.000,     0.000,   3,1,0
  2564,'99',1,   6,  99,     3.356,     1.678,     0.000,     0.000,     0.000,     0.000,   3,1,0
  2567,'99',1,   6,  99,    20.892,    10.446,     0.000,     0.000,     0.000,     0.000,   3,1,0
  2568,'99',1,   6,  99,     9.236,     4.618,     0.000,     0.000,     0.000,     0.000,   3,1,0
  2571,'99',1,   6,  99,     3.761,     1.880,     0.000,     0.000,     0.000,     0.000,   3,1,0
  2572,'99',1,   6,  99,    12.571,     6.285,     0.000,     0.000,     0.000,     0.000,   3,1,0
  2573,'99',1,   6,  99,     7.042,     3.521,     0.000,     0.000,     0.000,     0.000,   3,1,0
  2576,'99',1,   6,  99,    21.084,    10.542,     0.000,     0.000,     0.000,     0.000,   3,1,0
  2578,'99',1,   6,  99,     1.883,     0.942,     0.000,     0.000,     0.000,     0.000,   3,1,0
  2579,'99',1,   6,  99,    10.308,     5.154,     0.000,     0.000,     0.000,     0.000,   3,1,0
  2582,'99',1,   6,  99,     4.883,     2.441,     0.000,     0.000,     0.000,     0.000,   3,1,0
  2585,'99',1,   6,  99,    11.571,     5.786,     0.000,     0.000,     0.000,     0.000,   3,1,0
  2588,'99',1,   6,  99,    19.346,     9.673,     0.000,     0.000,     0.000,     0.000,   3,1,0
  2589,'99',1,   6,  99,    12.410,     6.205,     0.000,     0.000,     0.000,     0.000,   3,1,0
  2598,'99',1,   6,  99,    20.337,    10.168,     0.000,     0.000,     0.000,     0.000,   3,1,0
  2605,'99',1,  29,  99,     1.124,     0.562,     0.000,     0.000,     0.000,     0.000,  17,1,0
  2621,'99',1,  42,  99,     0.014,     0.007,     0.000,     0.000,     0.000,     0.000, 371,1,0
  2622,'99',1,  42,  99,     0.014,     0.007,     0.000,     0.000,     0.000,     0.000, 371,1,0
  2623,'99',1,  42,  99,     0.011,     0.005,     0.000,     0.000,     0.000,     0.000, 371,1,0
  2624,'99',1,  42,  99,     0.014,     0.007,     0.000,     0.000,     0.000,     0.000, 371,1,0
  2625,'99',1,  42,  99,     0.018,     0.009,     0.000,     0.000,     0.000,     0.000, 371,1,0
  2674,'99',1,  26,  99,     0.018,     0.009,     0.000,     0.000,     0.000,     0.000, 193,1,0
  2690,'99',1,  54,  99,    11.368,     5.684,     0.000,     0.000,     0.000,     0.000,  17,1,0
  2716,'99',1,  42,  99,     0.985,     0.493,     0.000,     0.000,     0.000,     0.000, 391,1,0
  2763,'99',1,  53,  99,     0.149,     0.074,     0.000,     0.000,     0.000,     0.000, 190,1,0
  2771,'99',1,  33,  99,     5.050,     2.525,     0.000,     0.000,     0.000,     0.000,  17,1,0
  2779,'99',1,  40,  99,     2.031,     1.016,     0.000,     0.000,     0.000,     0.000,  17,1,0
  2780,'99',1,  35,  99,     5.880,     2.940,     0.000,     0.000,     0.000,     0.000,  17,1,0
  2834,'99',1,  33,  99,    18.024,     9.012,     0.000,     0.000,     0.000,     0.000,  40,1,0
...
0 / END OF LOAD DATA, BEGIN FIXED SHUNT DATA
  1089,'1 ',0,     0.000,    36.000
0 / END OF FIXED SHUNT DATA, BEGIN GENERATOR DATA
    14,'1 ',    14.431,    -1.547,     8.200,    -5.600,1.02500,     0,    21.000, 0.00000E+0, 1.30000E-1, 0.00000E+0, 0.00000E+0,1.00000,1,  100.0,    17.000,     6.000,   4,1.0000
    33,'1 ',     0.000,     0.000,     4.100,    -2.800,1.02200,     0,     9.300, 2.00000E-3, 2.10000E-1, 0.00000E+0, 0.00000E+0,1.00000,0,  100.0,     8.400,    -0.500,  17,1.0000
    33,'2 ',     0.000,     0.000,     4.100,    -2.800,1.02200,     0,     9.300, 2.00000E-3, 2.20000E-1, 0.00000E+0, 0.00000E+0,1.00000,0,  100.0,     8.400,    -0.500,  17,1.0000
    43,'1 ',    -0.027,     0.000,     0.000,     0.000,1.03000,     0,     4.000, 0.00000E+0, 2.50000E-1, 0.00000E+0, 0.00000E+0,1.00000,1,  100.0,     0.000,    -4.000,  29,1.0000
    43,'2 ',    -0.027,     0.000,     0.000,     0.000,1.03000,     0,     4.000, 0.00000E+0, 2.50000E-1, 0.00000E+0, 0.00000E+0,1.00000,1,  100.0,     0.000,    -4.000,  29,1.0000
    43,'3 ',    -0.027,     0.000,     0.000,     0.000,1.03000,     0,     4.000, 0.00000E+0, 2.50000E-1, 0.00000E+0, 0.00000E+0,1.00000,1,  100.0,     0.000,    -4.000,  29,1.0000
    43,'4 ',    -0.027,     0.000,     0.000,     0.000,1.03000,     0,     4.000, 0.00000E+0, 2.50000E-1, 0.00000E+0, 0.00000E+0,1.00000,1,  100.0,     0.000,    -4.000,  29,1.0000
    43,'G1',    96.000,    41.900,    41.900,   -28.400,1.03000,     0,    96.100, 1.66000E-3, 2.10000E-1, 0.00000E+0, 0.00000E+0,1.00000,1,  100.0,    96.000,     0.000,  29,1.0000
    43,'G2',    -0.053,    -4.100,    -4.100,    -4.100,1.03000,     0,     9.000, 0.00000E+0, 1.67000E-1, 0.00000E+0, 0.00000E+0,1.00000,1,  100.0,     0.000,    -9.000,  29,1.0000
    43,'GT',    99.400,    48.100,    48.100,   -32.700,1.03000,     0,   110.400, 4.00000E-3, 2.19000E-1, 0.00000E+0, 0.00000E+0,1.00000,1,  100.0,    99.400,    20.000,  29,1.0000
    43,'M1',    -0.080,     0.000,     0.000,     0.000,1.03000,     0,    12.800, 0.00000E+0, 3.20000E-1, 0.00000E+0, 0.00000E+0,1.00000,1,  100.0,     0.000,   -11.190,  29,1.0000
    43,'M2',    -0.080,     0.000,     0.000,     0.000,1.03000,     0,    12.800, 0.00000E+0, 3.20000E-1, 0.00000E+0, 0.00000E+0,1.00000,1,  100.0,     0.000,   -11.190,  29,1.0000
    43,'M3',    -0.080,     0.000,     0.000,     0.000,1.03000,     0,    12.800, 0.00000E+0, 3.20000E-1, 0.00000E+0, 0.00000E+0,1.00000,1,  100.0,     0.000,   -11.190,  29,1.0000
    43,'M4',    -0.080,     0.000,     0.000,     0.000,1.03000,     0,    12.800, 0.00000E+0, 3.20000E-1, 0.00000E+0, 0.00000E+0,1.00000,1,  100.0,     0.000,   -11.190,  29,1.0000
    43,'M5',    -0.080,     0.000,     0.000,     0.000,1.03000,     0,    12.800, 0.00000E+0, 3.20000E-1, 0.00000E+0, 0.00000E+0,1.00000,1,  100.0,     0.000,   -11.190,  29,1.0000
    43,'M6',    -0.161,     0.000,     0.000,     0.000,1.03000,     0,    25.600, 0.00000E+0, 2.33000E-1, 0.00000E+0, 0.00000E+0,1.00000,1,  100.0,     0.000,   -25.600,  29,1.0000
    43,'ST',    38.535,    18.969,    46.300,   -31.400,1.03000,     0,   106.300, 3.84000E-3, 1.80000E-1, 0.00000E+0, 0.00000E+0,1.00000,1,  100.0,    95.700,    10.000,  29,1.0000
    50,'1 ',    32.837,    31.000,    31.000,   -21.100,1.03000,     0,    71.200, 0.00000E+0, 1.81000E-1, 0.00000E+0, 0.00000E+0,1.00000,1,  100.0,    64.100,    20.000, 211,1.0000
    61,'G1',    87.757,    23.309,    48.200,   -32.700,1.03000,     0,   110.600, 0.00000E+0, 3.00000E-1, 0.00000E+0, 0.00000E+0,1.00000,1,  100.0,    99.500,     0.000, 191,1.0000
    61,'G2',    80.000,   -32.700,    48.200,   -32.700,1.03000,     0,   110.600, 0.00000E+0, 3.00000E-1, 0.00000E+0, 0.00000E+0,1.00000,0,  100.0,    99.500,     0.000, 191,1.0000
    61,'GT',    80.000,   -28.700,    42.300,   -28.700,1.03000,     0,    97.000, 4.00000E-3, 2.00000E-1, 0.00000E+0, 0.00000E+0,1.00000,0,  100.0,    95.000,    17.000, 191,1.0000
    61,'M1',    -1.253,     0.000,     0.000,    -5.800,1.03000,     0,     9.900, 6.40000E-3, 1.98000E-1, 0.00000E+0, 0.00000E+0,1.00000,1,  100.0,     0.000,    -9.698, 191,1.0000
    61,'M2',    -1.566,     0.000,     0.000,     0.000,1.03000,     0,    12.500, 5.50000E-3, 2.50000E-1, 0.00000E+0, 0.00000E+0,1.00000,1,  100.0,     0.000,   -12.520, 191,1.0000
    61,'ST',    12.300,   -15.000,    23.800,   -15.000,1.03000,     0,    50.600, 5.00000E-3, 2.00000E-1, 0.00000E+0, 0.00000E+0,1.00000,0,  100.0,    45.500,    12.000, 191,1.0000
   102,'1 ',    22.600,    -2.508,    28.600,   -19.400,0.97300,     0,    65.500, 1.95000E-3, 3.40000E-1, 0.00000E+0, 0.00000E+0,1.00000,0,  100.0,    60.000,     0.000,  17,1.0000
   108,'2 ',    45.285,    -5.141,    28.600,   -19.400,0.97200,     0,    65.500, 1.95000E-3, 3.40000E-1, 0.00000E+0, 0.00000E+0,1.00000,1,  100.0,    60.000,     0.000,  17,1.0000
   129,'1 ',   212.400,   -25.000,    10.000,   -25.000,1.00000,     0,   333.000, 2.00000E-3, 1.90000E-1, 0.00000E+0, 0.00000E+0,1.00000,1,  100.0,   300.000,   154.000,  17,1.0000
   130,'3A',   306.835,    14.392,   188.900,  -128.200,1.03000,     0,   483.300, 5.10000E-3, 2.07000E-1, 0.00000E+0, 0.00000E+0,1.00000,1,  100.0,   395.000,   155.500,  17,1.0000
   151,'1 ',    33.530,   -20.078,    80.200,   -54.400,0.98000,     0,   184.000, 2.00000E-3, 2.42000E-1, 0.00000E+0, 0.00000E+0,1.00000,1,  100.0,   160.000,     0.000,  17,1.0000
   154,'2 ',    16.800,    33.485,    90.200,   -61.200,0.98000,     0,   207.000, 2.00000E-3, 3.30000E-1, 0.00000E+0, 0.00000E+0,1.00000,0,  100.0,   190.000,    -3.100,  17,1.0000
   172,'1 ',     5.600,     0.589,     2.700,    -1.800,1.02500,     0,     6.300, 2.00000E-3, 2.00000E-1, 0.00000E+0, 0.00000E+0,1.00000,1,  100.0,     5.600,     0.000,  17,1.0000
   172,'2 ',     3.400,     0.358,     1.600,    -1.100,1.02500,     0,     3.800, 2.00000E-3, 2.00000E-1, 0.00000E+0, 0.00000E+0,1.00000,1,  100.0,     3.400,     0.000,  17,1.0000
   172,'3 ',     0.479,     0.050,     1.600,    -1.100,1.02500,     0,     3.800, 2.00000E-3, 2.00000E-1, 0.00000E+0, 0.00000E+0,1.00000,1,  100.0,     3.400,     0.000,  17,1.0000
   172,'4 ',     2.900,     0.441,     2.700,    -1.800,1.02500,     0,     6.300, 2.00000E-3, 2.00000E-1, 0.00000E+0, 0.00000E+0,1.00000,0,  100.0,     5.600,     0.000,  17,1.0000
   174,'1 ',    34.713,     9.247,    31.600,   -18.000,1.04663,     0,    54.600, 2.00000E-3, 2.20000E-1, 0.00000E+0, 0.00000E+0,1.00000,1,  100.0,    50.000,     0.000,  17,1.0000
   176,'1 ',     9.410,     8.700,     8.700,    -5.900,1.04775,     0,    20.000, 1.00000E-3, 2.50000E-1, 0.00000E+0, 0.00000E+0,1.00000,1,  100.0,    18.000,    -0.500, 194,1.0000
   176,'2 ',     4.700,     6.814,     9.600,    -5.800,1.04775,     0,    20.000, 1.00000E-3, 3.30000E-1, 0.00000E+0, 0.00000E+0,1.00000,0,  100.0,    18.000,    -2.000, 194,1.0000
   181,'2 ',    16.200,     2.780,     7.800,    -5.300,1.00000,     0,    15.000, 2.00000E-3, 1.70000E-1, 0.00000E+0, 0.00000E+0,1.00000,1,  100.0,    16.200,     0.000,  17,1.0000
   181,'3 ',     7.518,     1.290,     8.700,    -5.900,1.00000,     0,    15.000, 2.00000E-3, 1.70000E-1, 0.00000E+0, 0.00000E+0,1.00000,1,  100.0,    18.000,     0.000,  17,1.0000
   181,'4A',    10.200,     2.977,    12.800,    -8.700,1.00000,     0,    31.100, 1.00000E-3, 3.70000E-1, 0.00000E+0, 0.00000E+0,1.00000,0,  100.0,    26.500,    -0.500,  17,1.0000
   183,'1 ',     7.797,    -5.300,     7.800,    -5.300,1.01500,     0,    18.000, 2.00000E-3, 2.10000E-1, 0.00000E+0, 0.00000E+0,1.00000,1,  100.0,    17.400,     0.000,  17,1.0000
   189,'1 ',    -6.227,     0.000,     0.000,     0.000,1.00000,     0,    15.000, 0.00000E+0, 2.50000E-1, 0.00000E+0, 0.00000E+0,1.00000,1,  100.0,     0.000,   -15.000,  17,1.0000
   189,'2 ',    -6.227,     0.000,     0.000,     0.000,1.00000,     0,    15.000, 0.00000E+0, 2.50000E-1, 0.00000E+0, 0.00000E+0,1.00000,1,  100.0,     0.000,   -15.000,  17,1.0000
   190,'2A',    16.400,   -11.184,    27.100,   -18.400,1.00000,     0,    62.200, 1.00000E-3, 3.20000E-1, 0.00000E+0, 0.00000E+0,1.00000,0,  100.0,    56.000,     0.000,  17,1.0000
   196,'1 ',     5.000,     1.900,     1.900,    -1.300,1.04786,     0,     4.300, 2.00000E-3, 2.00000E-1, 0.00000E+0, 0.00000E+0,1.00000,1,  100.0,     5.000,     0.000,  17,1.0000
   196,'2 ',     5.000,     1.900,     1.900,    -1.300,1.04786,     0,     4.300, 2.00000E-3, 2.00000E-1, 0.00000E+0, 0.00000E+0,1.00000,1,  100.0,     5.000,     0.000,  17,1.0000
   196,'3 ',     0.407,     3.497,     4.900,    -3.300,1.04786,     0,    11.300, 2.00000E-3, 3.00000E-1, 0.00000E+0, 0.00000E+0,1.00000,1,  100.0,    10.000,     0.000,  17,1.0000
   197,'2 ',     9.855,     5.276,    15.300,   -10.400,1.04761,     0,    35.000, 2.00000E-3, 2.00000E-1, 0.00000E+0, 0.00000E+0,1.00000,1,  100.0,    33.000,    -1.000,  17,1.0000
   214,'1 ',     4.488,     6.500,     6.500,    -4.400,1.03415,     0,    15.000, 2.00000E-3, 1.60000E-1, 0.00000E+0, 0.00000E+0,1.00000,1,  100.0,    14.100,     0.000,  17,1.0000
   222,'1 ',     5.455,     0.840,     4.900,    -3.300,1.03000,     0,    11.300, 2.00000E-3, 2.50000E-1, 0.00000E+0, 0.00000E+0,1.00000,1,  100.0,    11.000,     0.000,  17,1.0000
   248,'1 ',   100.800,    25.882,    48.800,   -33.100,1.04000,     0,   112.000, 0.00000E+0, 2.27100E-1, 0.00000E+0, 0.00000E+0,1.00000,1,  100.0,   100.800,    16.000,  36,1.0000
   248,'2 ',    59.200,    15.200,    48.800,   -33.100,1.04000,     0,   112.000, 0.00000E+0, 2.27100E-1, 0.00000E+0, 0.00000E+0,1.00000,1,  100.0,   100.800,    16.000,  36,1.0000
   255,'1 ',     0.888,     0.000,     0.000,     0.000,1.02560,     0,    14.000, 3.00000E-1, 2.30000E-1, 0.00000E+0, 0.00000E+0,1.00000,1,  100.0,    11.300,     0.000,  17,1.0000
   265,'1 ',     0.608,     0.000,     0.000,     0.000,1.02551,     0,    13.800, 3.00000E-1, 2.30000E-1, 0.00000E+0, 0.00000E+0,1.00000,1,  100.0,    10.100,     0.000,  17,1.0000
   268,'1 ',    -2.506,     0.000,     0.000,     0.000,1.00000,     0,    22.400, 0.00000E+0, 1.60000E-1, 0.00000E+0, 0.00000E+0,1.00000,1,  100.0,     0.000,   -22.400,  17,1.0000
   268,'E1',    -0.250,    -0.125,     0.000,     0.000,1.00000,     0,     2.600, 0.00000E+0, 1.60000E-1, 0.00000E+0, 0.00000E+0,1.00000,0,  100.0,     0.000,    -2.600,  17,1.0000
   268,'F1',    -0.752,     0.000,     0.000,     0.000,1.00000,     0,     8.200, 0.00000E+0, 1.60000E-1, 0.00000E+0, 0.00000E+0,1.00000,1,  100.0,     0.000,    -8.200,  17,1.0000
   268,'F2',    -0.752,     0.000,     0.000,     0.000,1.00000,     0,     8.200, 0.00000E+0, 1.60000E-1, 0.00000E+0, 0.00000E+0,1.00000,1,  100.0,     0.000,    -8.200,  17,1.0000
   287,'1 ',   -12.576,     0.000,     0.000,     0.000,1.01747,     0,    22.400, 0.00000E+0, 1.60000E-1, 0.00000E+0, 0.00000E+0,1.00000,1,  100.0,     0.000,   -22.400,  17,1.0000
   287,'E2',    -0.662,     0.000,     0.000,     0.000,1.01747,     0,     2.600, 0.00000E+0, 1.60000E-1, 0.00000E+0, 0.00000E+0,1.00000,1,  100.0,     0.000,    -2.600,  17,1.0000
   288,'1 ',    -2.506,     0.000,     0.000,     0.000,1.00723,     0,    22.400, 0.00000E+0, 1.60000E-1, 0.00000E+0, 0.00000E+0,1.00000,1,  100.0,     0.000,   -22.400,  17,1.0000
   289,'1 ',    -2.005,     0.000,     0.000,     0.000,1.00747,     0,    18.700, 0.00000E+0, 2.11000E-1, 0.00000E+0, 0.00000E+0,1.00000,1,  100.0,     0.000,   -18.700,  17,1.0000
   289,'2 ',    -2.005,     0.000,     0.000,     0.000,1.00747,     0,    18.700, 0.00000E+0, 2.11000E-1, 0.00000E+0, 0.00000E+0,1.00000,1,  100.0,     0.000,   -18.700,  17,1.0000
   332,'1 ',     7.529,     0.044,     5.500,    -3.700,1.04763,     0,    12.500, 0.00000E+0, 1.30000E-1, 0.00000E+0, 0.00000E+0,1.00000,1,  100.0,    11.300,     0.000,   4,1.0000
   342,'4A',   337.859,    77.049,   181.000,  -123.000,1.03000,     0,   483.000, 2.00000E-3, 2.50000E-1, 0.00000E+0, 0.00000E+0,1.00000,1,  100.0,   430.000,   169.000,  17,1.0000
   345,'5A',   329.394,    75.433,   181.000,  -123.000,1.03000,     0,   483.700, 2.00000E-3, 2.50000E-1, 0.00000E+0, 0.00000E+0,1.00000,1,  100.0,   435.400,   150.000,  17,1.0000
   350,'6A',   153.618,    56.579,   210.000,   -50.000,1.03000,     0,   472.800, 2.00000E-3, 2.47000E-1, 0.00000E+0, 0.00000E+0,1.00000,1,  100.0,   425.000,   150.000,  17,1.0000
   377,'1 ',     1.250,     0.008,     2.400,    -1.600,1.03085,     0,     5.600, 2.00000E-3, 2.00000E-1, 0.00000E+0, 0.00000E+0,1.00000,1,  100.0,     5.000,     0.000,  17,1.0000
   381,'1 ',     0.947,    -1.200,     1.700,    -1.200,1.04255,     0,     4.000, 2.00000E-3, 2.00000E-1, 0.00000E+0, 0.00000E+0,1.00000,1,  100.0,     3.600,     0.000,  17,1.0000
   383,'1 ',   158.000,   -37.000,    48.000,   -37.000,1.01800,     0,   165.000, 7.40000E-3, 1.41000E-1, 0.00000E+0, 0.00000E+0,1.00000,1,  100.0,   158.000,    55.000,  17,1.0000
   383,'2 ',    57.000,   -18.406,    53.000,   -47.000,1.01800,     0,   171.000, 7.40000E-3, 1.41000E-1, 0.00000E+0, 0.00000E+0,1.00000,1,  100.0,   163.000,    57.000,  17,1.0000
   383,'3 ',   125.000,   -30.963,    35.000,   -43.000,1.01800,     0,   157.000, 7.50000E-3, 1.31000E-1, 0.00000E+0, 0.00000E+0,1.00000,0,  100.0,   133.000,    50.000,  17,1.0000
   403,'3 ',   483.600,   112.365,   310.400,   -99.900,1.06000,   610,   586.000, 4.00000E-3, 2.77000E-1, 0.00000E+0, 0.00000E+0,1.00000,1,  100.0,   498.000,   142.000,  17,1.0000
   405,'1 ',    82.500,   -24.700,    25.800,   -24.700,1.05000,     0,    93.900, 3.30000E-3, 1.60000E-1, 0.00000E+0, 0.00000E+0,1.00000,1,  100.0,    82.500,     8.000, 251,1.0000
   405,'2 ',    44.800,   -35.000,    40.000,   -35.000,1.05000,     0,    93.900, 3.30000E-3, 1.60000E-1, 0.00000E+0, 0.00000E+0,1.00000,1,  100.0,    85.300,    10.000, 251,1.0000
   407,'1 ',     4.377,     2.398,     6.000,    -4.100,1.02756,     0,    13.800, 0.00000E+0, 2.30000E-1, 0.00000E+0, 0.00000E+0,1.00000,1,  100.0,    12.400,     0.000,  17,1.0000
   408,'1 ',    22.643,     8.924,    15.400,   -10.500,1.02671,     0,    35.300, 0.00000E+0, 1.80000E-1, 0.00000E+0, 0.00000E+0,1.00000,1,  100.0,    31.800,     0.000,  17,1.0000
   414,'1 ',     5.968,    -0.259,    10.000,    -6.800,1.02000,     0,    22.800, 0.00000E+0, 2.40000E-1, 0.00000E+0, 0.00000E+0,1.00000,1,  100.0,    20.600,     0.000,  17,1.0000
   422,'1A',   386.261,    42.309,   208.000,  -110.000,1.03000,     0,   477.000, 5.07000E-3, 3.00000E-1, 0.00000E+0, 0.00000E+0,1.00000,1,  100.0,   415.000,   164.000,  17,1.0000
   424,'2A',   366.492,    39.769,   208.000,  -110.000,1.03000,     0,   477.000, 5.07000E-3, 3.00000E-1, 0.00000E+0, 0.00000E+0,1.00000,1,  100.0,   415.000,   199.000,  17,1.0000
   450,'1 ',     0.079,     1.716,     2.400,    -1.600,1.04788,     0,     7.000, 0.00000E+0, 2.00000E-1, 0.00000E+0, 0.00000E+0,1.00000,1,  100.0,     6.300,     0.000,  17,1.0000
   451,'1 ',    65.674,     0.000,     0.000,     0.000,1.00000,     0,   310.000, 0.00000E+0, 1.00000E+0, 0.00000E+0, 0.00000E+0,1.00000,1,  100.0,   320.000,  -320.000, 381,1.0000
   479,'1 ',     3.500,     8.419,     8.700,    -5.900,1.04761,     0,    20.000, 2.00000E-3, 2.50000E-1, 0.00000E+0, 0.00000E+0,1.00000,0,  100.0,    18.000,    -1.000,  17,1.0000
   490,'3 ',   414.091,   102.314,   255.400,  -173.300,1.04000,     0,   586.000, 1.89000E-3, 2.77000E-1, 0.00000E+0, 0.00000E+0,1.00000,1,  100.0,   527.400,   142.000,   5,1.0000
   491,'1 ',   422.000,    88.102,   138.400,   -34.400,1.04000,     0,   482.400, 1.89000E-3, 2.50000E-1, 0.00000E+0, 0.00000E+0,1.00000,1,  100.0,   422.000,   123.600,   5,1.0000
   492,'2A',   422.000,    85.353,   208.000,  -112.000,1.04000,     0,   482.400, 1.85000E-3, 2.50000E-1, 0.00000E+0, 0.00000E+0,1.00000,1,  100.0,   422.000,   200.000,   5,1.0000
   680,'1 ',    56.300,    10.970,    27.200,   -18.500,1.02000,     0,    62.500, 0.00000E+0, 2.10000E-1, 0.00000E+0, 0.00000E+0,1.00000,1,  100.0,    56.300,     0.000,  17,1.0000
   680,'10',    31.900,     6.216,    15.400,   -10.500,1.02000,     0,    35.400, 0.00000E+0, 2.20000E-1, 0.00000E+0, 0.00000E+0,1.00000,1,  100.0,    31.900,    12.000,  17,1.0000
   680,'11',    31.900,     6.216,    15.400,   -10.500,1.02000,     0,    35.400, 0.00000E+0, 2.20000E-1, 0.00000E+0, 0.00000E+0,1.00000,1,  100.0,    31.900,    12.000,  17,1.0000
   680,'12',    17.521,     3.414,    18.600,   -12.600,1.02000,     0,    42.600, 0.00000E+0, 1.60000E-1, 0.00000E+0, 0.00000E+0,1.00000,1,  100.0,    38.300,     4.000,  17,1.0000
   680,'14',    40.000,    -4.601,    27.700,   -12.600,1.02000,     0,    67.500, 1.40000E-3, 1.90000E-1, 0.00000E+0, 0.00000E+0,1.00000,0,  100.0,    45.000,    17.000,  17,1.0000
   680,'15',    35.000,    -4.026,    22.000,   -14.100,1.02000,     0,    71.200, 5.30000E-3, 1.44000E-1, 0.00000E+0, 0.00000E+0,1.00000,0,  100.0,    43.000,    17.000,  17,1.0000
   680,'3 ',    30.000,    -3.451,    18.500,   -12.600,1.02000,     0,    42.600, 0.00000E+0, 1.60000E-1, 0.00000E+0, 0.00000E+0,1.00000,0,  100.0,    38.300,     4.000,  17,1.0000
   680,'9 ',     0.000,     0.000,    19.600,   -13.300,1.02000,     0,    44.900, 0.00000E+0, 2.60000E-1, 0.00000E+0, 0.00000E+0,1.00000,0,  100.0,    40.400,     0.000,  17,1.0000
  1031,'1 ',     0.000,     0.000,    13.900,    -9.500,1.02000,     0,    32.000, 3.50000E-3, 7.00000E-2, 0.00000E+0, 0.00000E+0,1.00000,0,  100.0,    28.800,     4.000,   1,1.0000
  1032,'2 ',     4.315,   -12.684,    25.000,   -18.000,1.02000,     0,    49.000, 7.20000E-3, 1.45000E-1, 0.00000E+0, 0.00000E+0,1.00000,1,  100.0,    44.100,     4.000,   1,1.0000
  1033,'3 ',     0.000,     0.000,     9.500,    -6.400,1.02000,     0,    21.700, 4.50000E-3, 9.00000E-2, 0.00000E+0, 0.00000E+0,1.00000,0,  100.0,    19.500,     3.000,   1,1.0000
  1035,'4 ',    32.000,   -17.300,    25.500,   -17.300,1.02000,     0,    58.600, 1.40000E-3, 1.62000E-1, 0.00000E+0, 0.00000E+0,1.00000,1,  100.0,    52.700,     9.000,  21,1.0000
  1037,'5 ',    18.200,    -5.773,    25.500,   -17.300,1.02000,     0,    60.000, 1.40000E-3, 1.98000E-1, 0.00000E+0, 0.00000E+0,1.00000,1,  100.0,    52.700,     2.000,  21,1.0000
  1087,'2 ',     5.000,    -9.200,    13.400,    -9.200,1.00000,     0,    29.500, 6.00000E-3, 1.40000E-1, 0.00000E+0, 0.00000E+0,1.00000,0,  100.0,    25.100,     5.000,  33,1.0000
  1089,'1A',    29.316,   -13.900,    20.500,   -13.900,1.00000,     0,    47.100, 9.30000E-3, 1.88000E-1, 0.00000E+0, 0.00000E+0,1.00000,1,  100.0,    40.000,     2.270,  33,1.0000
  1101,'2 ',    16.048,    -9.500,    13.900,    -9.500,1.05000,     0,    32.000, 3.10000E-3, 1.98000E-1, 0.00000E+0, 0.00000E+0,1.00000,1,  100.0,    28.800,     0.000,  30,1.0000
  1146,'1A',    14.758,   -16.200,    30.000,   -16.200,1.01000,     0,    57.900, 0.00000E+0, 1.55000E-1, 0.00000E+0, 0.00000E+0,1.00000,1,  100.0,    49.200,    10.000,  39,1.0000
  1148,'1 ',   124.925,   -21.775,    72.600,   -49.300,1.02600,     0,   167.000, 3.00000E-3, 1.85000E-1, 0.00000E+0, 0.00000E+0,1.00000,1,  100.0,   151.100,     0.000,   1,1.0000
  1167,'1 ',     0.000,     0.000,     5.400,    -3.700,1.03000,     0,    12.500, 4.50000E-3, 1.68000E-1, 0.00000E+0, 0.00000E+0,1.00000,0,  100.0,    11.300,     0.750,   1,1.0000
  1168,'2 ',     0.000,     0.000,     4.100,    -3.700,1.00000,     0,     9.400, 5.00000E-3, 1.68000E-1, 0.00000E+0, 0.00000E+0,1.00000,0,  100.0,     8.400,     0.750,   1,1.0000
  1171,'1 ',     9.000,   -17.300,    25.500,   -17.300,1.02000,     0,    60.000, 1.40000E-3, 1.98000E-1, 0.00000E+0, 0.00000E+0,1.00000,1,  100.0,    52.700,     9.000,   1,1.0000
  1173,'2 ',     2.000,   -17.300,    25.500,   -17.300,1.00000,     0,    72.000, 5.00000E-4, 1.60000E-1, 0.00000E+0, 0.00000E+0,1.00000,1,  100.0,    52.700,     2.000,   1,1.0000
  1205,'1 ',   100.000,    36.015,    44.800,   -30.400,1.10000,     0,   102.800, 4.00000E-3, 2.30000E-1, 0.00000E+0, 0.00000E+0,1.00000,1,  100.0,   100.000,    16.450,   9,1.0000
  1205,'11',    22.000,     7.923,    27.000,   -13.000,1.10000,     0,    33.800, 4.50000E-3, 1.47000E-1, 0.00000E+0, 0.00000E+0,1.00000,1,  100.0,    22.000,     2.000,   9,1.0000
...